<nodes>
    <!-- Center -->
    <node id="center" x="0" y="0" type="traffic_light"/>

    <!-- Cross roads -->
    <node id="north" x="0" y="100"/>
    <node id="south" x="0" y="-100"/>
    <node id="east" x="100" y="0"/>
    <node id="west" x="-100" y="0"/>

    <!-- Border corners -->
    <node id="nw" x="-100" y="100"/>
    <node id="ne" x="100" y="100"/>
    <node id="sw" x="-100" y="-100"/>
    <node id="se" x="100" y="-100"/>
</nodes>