<additional>
    <tlLogic id="B1" type="static" programID="0" offset="0">
        <phase duration="10" state="GrGr"/>
        <phase duration="3" state="yryr"/>
        <phase duration="10" state="rGrG"/>
        <phase duration="3" state="ryry"/>
    </tlLogic>
</additional>